LTspice 26.0.1 for Windows
Circuit: C:\Users\Microslop\Desktop\Burocket-flight-controller\Simulations\Soft start inrush current simulation\Draft2.net
Start Time: Tue Jul 14 19:53:25 2026
solver = Normal
Maximum thread count: 16
tnom = 27
temp = 27
method = trap
Direct Newton iteration succeeded in finding operating point.
Total elapsed time: 0.348 seconds.

Files loaded:
C:\Users\Microslop\Desktop\Burocket-flight-controller\Simulations\Soft start inrush current simulation\Draft2.net
C:\Users\Microslop\AppData\Local\LTspice\lib\cmp\standard.mos

