LTspice 26.0.1 for Windows
Circuit: C:\Users\Microslop\Desktop\Burocket-flight-controller\Simulations\Draft1.net
Start Time: Sat Jul 11 14:58:13 2026
solver = Normal
Maximum thread count: 16
tnom = 27
temp = 27
method = trap
C1: Increased Cpar to 4.7e-11
.OP point found by inspection.
.OP point found by inspection.
Total elapsed time: 0.051 seconds.

Files loaded:
C:\Users\Microslop\Desktop\Burocket-flight-controller\Simulations\Draft1.net

max_output_current: MAX(-I(V1))=0.543209910393 FROM 0 TO 0.1
max_power_output: MAX(-V(N001)*I(V1))=2.70828223916 FROM 0 TO 0.1
max_trace_current: MAX(I(L1))=0.543209910393 FROM 0 TO 0.1
